*SPEF "ieee 1481-1999"
*DESIGN "tiny_user_project"
*DATE "11:11:11 Fri 11 11, 1111"
*VENDOR "OpenRCX"
*PROGRAM "Parallel Extraction"
*VERSION "1.0"
*DESIGN_FLOW "NAME_SCOPE LOCAL" "PIN_CAP NONE"
*DIVIDER /
*DELIMITER :
*BUS_DELIMITER []
*T_UNIT 1 NS
*C_UNIT 1 PF
*R_UNIT 1 OHM
*L_UNIT 1 HENRY

*NAME_MAP
*1 io_in[0]
*2 io_in[10]
*3 io_in[11]
*4 io_in[12]
*5 io_in[13]
*6 io_in[14]
*7 io_in[15]
*8 io_in[16]
*9 io_in[17]
*10 io_in[18]
*11 io_in[19]
*12 io_in[1]
*13 io_in[20]
*14 io_in[21]
*15 io_in[22]
*16 io_in[23]
*17 io_in[24]
*18 io_in[25]
*19 io_in[26]
*20 io_in[27]
*21 io_in[28]
*22 io_in[29]
*23 io_in[2]
*24 io_in[30]
*25 io_in[31]
*26 io_in[32]
*27 io_in[33]
*28 io_in[34]
*29 io_in[35]
*30 io_in[36]
*31 io_in[37]
*32 io_in[3]
*33 io_in[4]
*34 io_in[5]
*35 io_in[6]
*36 io_in[7]
*37 io_in[8]
*38 io_in[9]
*39 net75
*40 net85
*41 net86
*42 net87
*43 net88
*44 net89
*45 net90
*46 net91
*47 net92
*48 net93
*49 net94
*50 net76
*51 net95
*52 net96
*53 net97
*54 net98
*55 net99
*56 net100
*57 net101
*58 net102
*59 net103
*60 net104
*61 net77
*62 net105
*63 net106
*64 net107
*65 net108
*66 net109
*67 net110
*68 net111
*69 net112
*70 net78
*71 net79
*72 net80
*73 net81
*74 net82
*75 net83
*76 net84
*77 net113
*78 net123
*79 net124
*80 net125
*81 net126
*82 net127
*83 net128
*84 io_out[16]
*85 io_out[17]
*86 io_out[18]
*87 io_out[19]
*88 net114
*89 io_out[20]
*90 io_out[21]
*91 io_out[22]
*92 io_out[23]
*93 net129
*94 net130
*95 net131
*96 net132
*97 net133
*98 net134
*99 net115
*100 net135
*101 net136
*102 net137
*103 net138
*104 net139
*105 net140
*106 net141
*107 net142
*108 net116
*109 net117
*110 net118
*111 net119
*112 net120
*113 net121
*114 net122
*115 la_data_in[0]
*116 la_data_in[10]
*117 la_data_in[11]
*118 la_data_in[12]
*119 la_data_in[13]
*120 la_data_in[14]
*121 la_data_in[15]
*122 la_data_in[16]
*123 la_data_in[17]
*124 la_data_in[18]
*125 la_data_in[19]
*126 la_data_in[1]
*127 la_data_in[20]
*128 la_data_in[21]
*129 la_data_in[22]
*130 la_data_in[23]
*131 la_data_in[24]
*132 la_data_in[25]
*133 la_data_in[26]
*134 la_data_in[27]
*135 la_data_in[28]
*136 la_data_in[29]
*137 la_data_in[2]
*138 la_data_in[30]
*139 la_data_in[31]
*140 la_data_in[32]
*141 la_data_in[33]
*142 la_data_in[34]
*143 la_data_in[35]
*144 la_data_in[36]
*145 la_data_in[37]
*146 la_data_in[38]
*147 la_data_in[39]
*148 la_data_in[3]
*149 la_data_in[40]
*150 la_data_in[41]
*151 la_data_in[42]
*152 la_data_in[43]
*153 la_data_in[44]
*154 la_data_in[45]
*155 la_data_in[46]
*156 la_data_in[47]
*157 la_data_in[48]
*158 la_data_in[49]
*159 la_data_in[4]
*160 la_data_in[50]
*161 la_data_in[51]
*162 la_data_in[52]
*163 la_data_in[53]
*164 la_data_in[54]
*165 la_data_in[55]
*166 la_data_in[56]
*167 la_data_in[57]
*168 la_data_in[58]
*169 la_data_in[59]
*170 la_data_in[5]
*171 la_data_in[60]
*172 la_data_in[61]
*173 la_data_in[62]
*174 la_data_in[63]
*175 la_data_in[6]
*176 la_data_in[7]
*177 la_data_in[8]
*178 la_data_in[9]
*179 net143
*180 net153
*181 net154
*182 net155
*183 net156
*184 net157
*185 net158
*186 net159
*187 net160
*188 net161
*189 net162
*190 net144
*191 net163
*192 net164
*193 net165
*194 net166
*195 net167
*196 net168
*197 net169
*198 net170
*199 net171
*200 net172
*201 net145
*202 net173
*203 net174
*204 net175
*205 net176
*206 net177
*207 net178
*208 net179
*209 net180
*210 net181
*211 net182
*212 net146
*213 net183
*214 net184
*215 net185
*216 net186
*217 net187
*218 net188
*219 net189
*220 net190
*221 net191
*222 net192
*223 net147
*224 net193
*225 net194
*226 net195
*227 net196
*228 net197
*229 net198
*230 net199
*231 net200
*232 net201
*233 net202
*234 net148
*235 net203
*236 net204
*237 net205
*238 net206
*239 net149
*240 net150
*241 net151
*242 net152
*243 la_oenb[0]
*244 la_oenb[10]
*245 la_oenb[11]
*246 la_oenb[12]
*247 la_oenb[13]
*248 la_oenb[14]
*249 la_oenb[15]
*250 la_oenb[16]
*251 la_oenb[17]
*252 la_oenb[18]
*253 la_oenb[19]
*254 la_oenb[1]
*255 la_oenb[20]
*256 la_oenb[21]
*257 la_oenb[22]
*258 la_oenb[23]
*259 la_oenb[24]
*260 la_oenb[25]
*261 la_oenb[26]
*262 la_oenb[27]
*263 la_oenb[28]
*264 la_oenb[29]
*265 la_oenb[2]
*266 la_oenb[30]
*267 la_oenb[31]
*268 la_oenb[32]
*269 la_oenb[33]
*270 la_oenb[34]
*271 la_oenb[35]
*272 la_oenb[36]
*273 la_oenb[37]
*274 la_oenb[38]
*275 la_oenb[39]
*276 la_oenb[3]
*277 la_oenb[40]
*278 la_oenb[41]
*279 la_oenb[42]
*280 la_oenb[43]
*281 la_oenb[44]
*282 la_oenb[45]
*283 la_oenb[46]
*284 la_oenb[47]
*285 la_oenb[48]
*286 la_oenb[49]
*287 la_oenb[4]
*288 la_oenb[50]
*289 la_oenb[51]
*290 la_oenb[52]
*291 la_oenb[53]
*292 la_oenb[54]
*293 la_oenb[55]
*294 la_oenb[56]
*295 la_oenb[57]
*296 la_oenb[58]
*297 la_oenb[59]
*298 la_oenb[5]
*299 la_oenb[60]
*300 la_oenb[61]
*301 la_oenb[62]
*302 la_oenb[63]
*303 la_oenb[6]
*304 la_oenb[7]
*305 la_oenb[8]
*306 la_oenb[9]
*307 user_clock2
*308 net207
*309 net208
*310 net209
*313 wb_clk_i
*314 wb_rst_i
*315 net210
*316 wbs_adr_i[0]
*317 wbs_adr_i[10]
*318 wbs_adr_i[11]
*319 wbs_adr_i[12]
*320 wbs_adr_i[13]
*321 wbs_adr_i[14]
*322 wbs_adr_i[15]
*323 wbs_adr_i[16]
*324 wbs_adr_i[17]
*325 wbs_adr_i[18]
*326 wbs_adr_i[19]
*327 wbs_adr_i[1]
*328 wbs_adr_i[20]
*329 wbs_adr_i[21]
*330 wbs_adr_i[22]
*331 wbs_adr_i[23]
*332 wbs_adr_i[24]
*333 wbs_adr_i[25]
*334 wbs_adr_i[26]
*335 wbs_adr_i[27]
*336 wbs_adr_i[28]
*337 wbs_adr_i[29]
*338 wbs_adr_i[2]
*339 wbs_adr_i[30]
*340 wbs_adr_i[31]
*341 wbs_adr_i[3]
*342 wbs_adr_i[4]
*343 wbs_adr_i[5]
*344 wbs_adr_i[6]
*345 wbs_adr_i[7]
*346 wbs_adr_i[8]
*347 wbs_adr_i[9]
*348 wbs_cyc_i
*349 wbs_dat_i[0]
*350 wbs_dat_i[10]
*351 wbs_dat_i[11]
*352 wbs_dat_i[12]
*353 wbs_dat_i[13]
*354 wbs_dat_i[14]
*355 wbs_dat_i[15]
*356 wbs_dat_i[16]
*357 wbs_dat_i[17]
*358 wbs_dat_i[18]
*359 wbs_dat_i[19]
*360 wbs_dat_i[1]
*361 wbs_dat_i[20]
*362 wbs_dat_i[21]
*363 wbs_dat_i[22]
*364 wbs_dat_i[23]
*365 wbs_dat_i[24]
*366 wbs_dat_i[25]
*367 wbs_dat_i[26]
*368 wbs_dat_i[27]
*369 wbs_dat_i[28]
*370 wbs_dat_i[29]
*371 wbs_dat_i[2]
*372 wbs_dat_i[30]
*373 wbs_dat_i[31]
*374 wbs_dat_i[3]
*375 wbs_dat_i[4]
*376 wbs_dat_i[5]
*377 wbs_dat_i[6]
*378 wbs_dat_i[7]
*379 wbs_dat_i[8]
*380 wbs_dat_i[9]
*381 net211
*382 net221
*383 net222
*384 net223
*385 net224
*386 net225
*387 net226
*388 net227
*389 net228
*390 net229
*391 net230
*392 net212
*393 net231
*394 net232
*395 net233
*396 net234
*397 net235
*398 net236
*399 net237
*400 net238
*401 net239
*402 net240
*403 net213
*404 net241
*405 net242
*406 net214
*407 net215
*408 net216
*409 net217
*410 net218
*411 net219
*412 net220
*413 wbs_sel_i[0]
*414 wbs_sel_i[1]
*415 wbs_sel_i[2]
*416 wbs_sel_i[3]
*417 wbs_stb_i
*418 wbs_we_i
*419 _0000_
*420 _0001_
*421 _0002_
*422 _0003_
*423 _0004_
*424 _0005_
*425 _0006_
*426 _0007_
*427 _0008_
*428 _0009_
*429 _0010_
*430 _0011_
*431 _0012_
*432 _0013_
*433 _0014_
*434 _0015_
*435 _0016_
*436 _0017_
*437 _0018_
*438 _0019_
*439 _0020_
*440 _0021_
*441 _0022_
*442 _0023_
*443 _0024_
*444 _0025_
*445 _0026_
*446 _0027_
*447 _0028_
*448 _0029_
*449 _0030_
*450 _0031_
*451 _0032_
*452 _0033_
*453 _0034_
*454 _0035_
*455 _0036_
*456 _0037_
*457 _0038_
*458 _0039_
*459 _0040_
*460 _0041_
*461 _0042_
*462 _0043_
*463 _0044_
*464 _0045_
*465 _0046_
*466 _0047_
*467 _0048_
*468 _0049_
*469 _0050_
*470 _0051_
*471 _0052_
*472 _0053_
*473 _0054_
*474 _0055_
*475 _0056_
*476 _0057_
*477 _0058_
*478 _0059_
*479 _0060_
*480 _0061_
*481 _0062_
*482 _0063_
*483 _0064_
*484 _0065_
*485 _0066_
*486 _0067_
*487 _0068_
*488 _0069_
*489 _0070_
*490 _0071_
*491 _0072_
*492 _0073_
*493 _0074_
*494 _0075_
*495 _0076_
*496 _0077_
*497 _0078_
*498 _0079_
*499 _0080_
*500 _0081_
*501 _0082_
*502 _0083_
*503 _0084_
*504 _0085_
*505 _0086_
*506 _0087_
*507 _0088_
*508 _0089_
*509 _0090_
*510 _0091_
*511 _0092_
*512 _0093_
*513 _0094_
*514 _0095_
*515 _0096_
*516 _0097_
*517 _0098_
*518 _0099_
*519 _0100_
*520 _0101_
*521 _0102_
*522 _0103_
*523 _0104_
*524 _0105_
*525 _0106_
*526 _0107_
*527 _0108_
*528 _0109_
*529 _0110_
*530 _0111_
*531 _0112_
*532 _0113_
*533 _0114_
*534 _0115_
*535 _0116_
*536 _0117_
*537 _0118_
*538 _0119_
*539 _0120_
*540 _0121_
*541 _0122_
*542 _0123_
*543 _0124_
*544 _0125_
*545 _0126_
*546 _0127_
*547 _0128_
*548 _0129_
*549 _0130_
*550 _0131_
*551 _0132_
*552 _0133_
*553 _0134_
*554 _0135_
*555 _0136_
*556 _0137_
*557 _0138_
*558 _0139_
*559 _0140_
*560 _0141_
*561 _0142_
*562 _0143_
*563 _0144_
*564 _0145_
*565 _0146_
*566 _0147_
*567 _0148_
*568 _0149_
*569 _0150_
*570 _0151_
*571 _0152_
*572 _0153_
*573 _0154_
*574 _0155_
*575 _0156_
*576 _0157_
*577 _0158_
*578 _0159_
*579 _0160_
*580 _0161_
*581 _0162_
*582 _0163_
*583 _0164_
*584 _0165_
*585 _0166_
*586 _0167_
*587 _0168_
*588 _0169_
*589 _0170_
*590 _0171_
*591 _0172_
*592 _0173_
*593 _0174_
*594 _0175_
*595 _0176_
*596 _0177_
*597 _0178_
*598 _0179_
*599 _0180_
*600 _0181_
*601 _0182_
*602 _0183_
*603 _0184_
*604 _0185_
*605 _0186_
*606 _0187_
*607 _0188_
*608 _0189_
*609 _0190_
*610 _0191_
*611 _0192_
*612 _0193_
*613 _0194_
*614 _0195_
*615 _0196_
*616 _0197_
*617 _0198_
*618 _0199_
*619 _0200_
*620 _0201_
*621 _0202_
*622 _0203_
*623 _0204_
*624 _0205_
*625 _0206_
*626 _0207_
*627 _0208_
*628 _0209_
*629 _0210_
*630 _0211_
*631 _0212_
*632 _0213_
*633 _0214_
*634 _0215_
*635 _0216_
*636 _0217_
*637 _0218_
*638 _0219_
*639 _0220_
*640 _0221_
*641 _0222_
*642 _0223_
*643 _0224_
*644 _0225_
*645 _0226_
*646 _0227_
*647 _0228_
*648 _0229_
*649 _0230_
*650 _0231_
*651 _0232_
*652 _0233_
*653 _0234_
*654 _0235_
*655 _0236_
*656 _0237_
*657 _0238_
*658 _0239_
*659 _0240_
*660 _0241_
*661 _0242_
*662 _0243_
*663 _0244_
*664 _0245_
*665 _0246_
*666 _0247_
*667 _0248_
*668 _0249_
*669 _0250_
*670 _0251_
*671 _0252_
*672 _0253_
*673 _0254_
*674 _0255_
*675 _0256_
*676 _0257_
*677 _0258_
*678 _0259_
*679 _0260_
*680 _0261_
*681 _0262_
*682 _0263_
*683 _0264_
*684 _0265_
*685 _0266_
*686 _0267_
*687 _0268_
*688 _0269_
*689 _0270_
*690 _0271_
*691 _0272_
*692 _0273_
*693 _0274_
*694 _0275_
*695 _0276_
*696 _0277_
*697 _0278_
*698 _0279_
*699 _0280_
*700 _0281_
*701 _0282_
*702 _0283_
*703 _0284_
*704 _0285_
*705 _0286_
*706 _0287_
*707 _0288_
*708 _0289_
*709 _0290_
*710 _0291_
*711 _0292_
*712 _0293_
*713 _0294_
*714 _0295_
*715 _0296_
*716 _0297_
*717 _0298_
*718 _0299_
*719 _0300_
*720 _0301_
*721 _0302_
*722 _0303_
*723 _0304_
*724 _0305_
*725 _0306_
*726 _0307_
*727 _0308_
*728 _0309_
*729 _0310_
*730 _0311_
*731 _0312_
*732 _0313_
*733 _0314_
*734 _0315_
*735 _0316_
*736 _0317_
*737 _0318_
*738 _0319_
*739 _0320_
*740 _0321_
*741 _0322_
*742 _0323_
*743 _0324_
*744 _0325_
*745 _0326_
*746 _0327_
*747 _0328_
*748 _0329_
*749 _0330_
*750 _0331_
*751 _0332_
*752 _0333_
*753 _0334_
*754 _0335_
*755 _0336_
*756 _0337_
*757 _0338_
*758 _0339_
*759 _0340_
*760 _0341_
*761 _0342_
*762 _0343_
*763 _0344_
*764 _0345_
*765 _0346_
*766 _0347_
*767 _0348_
*768 _0349_
*769 _0350_
*770 _0351_
*771 _0352_
*772 _0353_
*773 _0354_
*774 _0355_
*775 _0356_
*776 _0357_
*777 _0358_
*778 _0359_
*779 _0360_
*780 _0361_
*781 _0362_
*782 _0363_
*783 _0364_
*784 _0365_
*785 _0366_
*786 _0367_
*787 _0368_
*788 _0369_
*789 _0370_
*790 _0371_
*791 _0372_
*792 _0373_
*793 _0374_
*794 _0375_
*795 _0376_
*796 _0377_
*797 _0378_
*798 _0379_
*799 _0380_
*800 _0381_
*801 _0382_
*802 _0383_
*803 _0384_
*804 _0385_
*805 _0386_
*806 _0387_
*807 _0388_
*808 _0389_
*809 _0390_
*810 _0391_
*811 _0392_
*812 _0393_
*813 _0394_
*814 _0395_
*815 _0396_
*816 _0397_
*817 _0398_
*818 _0399_
*819 _0400_
*820 _0401_
*821 _0402_
*822 _0403_
*823 _0404_
*824 _0405_
*825 _0406_
*826 _0407_
*827 _0408_
*828 _0409_
*829 _0410_
*830 _0411_
*831 _0412_
*832 _0413_
*833 _0414_
*834 _0415_
*835 _0416_
*836 _0417_
*837 _0418_
*838 _0419_
*839 _0420_
*840 _0421_
*841 _0422_
*842 _0423_
*843 _0424_
*844 _0425_
*845 _0426_
*846 _0427_
*847 _0428_
*848 _0429_
*849 _0430_
*850 _0431_
*851 _0432_
*852 _0433_
*853 _0434_
*854 _0435_
*855 _0436_
*856 _0437_
*857 _0438_
*858 _0439_
*859 _0440_
*860 _0441_
*861 _0442_
*862 _0443_
*863 _0444_
*864 _0445_
*865 _0446_
*866 _0447_
*867 _0448_
*868 _0449_
*869 _0450_
*870 _0451_
*871 _0452_
*872 _0453_
*873 _0454_
*874 _0455_
*875 _0456_
*876 _0457_
*877 _0458_
*878 _0459_
*879 _0460_
*880 _0461_
*881 _0462_
*882 _0463_
*883 _0464_
*884 _0465_
*885 _0466_
*886 _0467_
*887 _0468_
*888 _0469_
*889 _0470_
*890 _0471_
*891 _0472_
*892 _0473_
*893 _0474_
*894 _0475_
*895 _0476_
*896 _0477_
*897 _0478_
*898 _0479_
*899 _0480_
*900 _0481_
*901 _0482_
*902 _0483_
*903 _0484_
*904 _0485_
*905 _0486_
*906 _0487_
*907 _0488_
*908 _0489_
*909 _0490_
*910 _0491_
*911 _0492_
*912 _0493_
*913 _0494_
*914 _0495_
*915 _0496_
*916 _0497_
*917 _0498_
*918 _0499_
*919 _0500_
*920 _0501_
*921 _0502_
*922 _0503_
*923 _0504_
*924 _0505_
*925 _0506_
*926 _0507_
*927 _0508_
*928 _0509_
*929 _0510_
*930 _0511_
*931 _0512_
*932 _0513_
*933 _0514_
*934 _0515_
*935 _0516_
*936 _0517_
*937 _0518_
*938 _0519_
*939 _0520_
*940 _0521_
*941 _0522_
*942 _0523_
*943 _0524_
*944 _0525_
*945 _0526_
*946 _0527_
*947 _0528_
*948 _0529_
*949 _0530_
*950 _0531_
*951 _0532_
*952 _0533_
*953 _0534_
*954 _0535_
*955 _0536_
*956 _0537_
*957 _0538_
*958 _0539_
*959 _0540_
*960 _0541_
*961 _0542_
*962 _0543_
*963 _0544_
*964 _0545_
*965 _0546_
*966 _0547_
*967 _0548_
*968 _0549_
*969 _0550_
*970 _0551_
*971 _0552_
*972 _0553_
*973 _0554_
*974 _0555_
*975 _0556_
*976 _0557_
*977 _0558_
*978 _0559_
*979 _0560_
*980 _0561_
*981 _0562_
*982 _0563_
*983 _0564_
*984 _0565_
*985 _0566_
*986 _0567_
*987 _0568_
*988 _0569_
*989 _0570_
*990 _0571_
*991 _0572_
*992 _0573_
*993 _0574_
*994 _0575_
*995 _0576_
*996 _0577_
*997 _0578_
*998 _0579_
*999 _0580_
*1000 _0581_
*1001 _0582_
*1002 _0583_
*1003 _0584_
*1004 _0585_
*1005 _0586_
*1006 _0587_
*1007 _0588_
*1008 _0589_
*1009 _0590_
*1010 _0591_
*1011 _0592_
*1012 _0593_
*1013 _0594_
*1014 _0595_
*1015 _0596_
*1016 _0597_
*1017 _0598_
*1018 _0599_
*1019 _0600_
*1020 _0601_
*1021 _0602_
*1022 _0603_
*1023 _0604_
*1024 _0605_
*1025 _0606_
*1026 _0607_
*1027 _0608_
*1028 _0609_
*1029 _0610_
*1030 _0611_
*1031 _0612_
*1032 _0613_
*1033 _0614_
*1034 _0615_
*1035 _0616_
*1036 _0617_
*1037 _0618_
*1038 _0619_
*1039 _0620_
*1040 _0621_
*1041 _0622_
*1042 _0623_
*1043 _0624_
*1044 _0625_
*1045 _0626_
*1046 _0627_
*1047 _0628_
*1048 _0629_
*1049 _0630_
*1050 _0631_
*1051 _0632_
*1052 _0633_
*1053 _0634_
*1054 _0635_
*1055 _0636_
*1056 _0637_
*1057 _0638_
*1058 _0639_
*1059 _0640_
*1060 _0641_
*1061 _0642_
*1062 _0643_
*1063 _0644_
*1064 _0645_
*1065 _0646_
*1066 _0647_
*1067 _0648_
*1068 _0649_
*1069 _0650_
*1070 _0651_
*1071 _0652_
*1072 _0653_
*1073 _0654_
*1074 _0655_
*1075 _0656_
*1076 _0657_
*1077 _0658_
*1078 _0659_
*1079 _0660_
*1080 _0661_
*1081 _0662_
*1082 _0663_
*1083 _0664_
*1084 _0665_
*1085 _0666_
*1086 _0667_
*1087 _0668_
*1088 _0669_
*1089 _0670_
*1090 _0671_
*1091 _0672_
*1092 _0673_
*1093 _0674_
*1094 _0675_
*1095 _0676_
*1096 _0677_
*1097 _0678_
*1098 _0679_
*1099 _0680_
*1100 _0681_
*1101 _0682_
*1102 _0683_
*1103 _0684_
*1104 _0685_
*1105 _0686_
*1106 _0687_
*1107 _0688_
*1108 _0689_
*1109 _0690_
*1110 _0691_
*1111 _0692_
*1112 _0693_
*1113 _0694_
*1114 _0695_
*1115 _0696_
*1116 _0697_
*1117 _0698_
*1118 _0699_
*1119 _0700_
*1120 _0701_
*1121 _0702_
*1122 _0703_
*1123 _0704_
*1124 _0705_
*1125 _0706_
*1126 _0707_
*1127 _0708_
*1128 _0709_
*1129 _0710_
*1130 _0711_
*1131 _0712_
*1132 _0713_
*1133 _0714_
*1134 _0715_
*1135 _0716_
*1136 _0717_
*1137 _0718_
*1138 _0719_
*1139 _0720_
*1140 _0721_
*1141 _0722_
*1142 _0723_
*1143 _0724_
*1144 _0725_
*1145 _0726_
*1146 _0727_
*1147 _0728_
*1148 _0729_
*1149 _0730_
*1150 _0731_
*1151 _0732_
*1152 _0733_
*1153 _0734_
*1154 _0735_
*1155 _0736_
*1156 _0737_
*1157 _0738_
*1158 _0739_
*1159 _0740_
*1160 _0741_
*1161 _0742_
*1162 _0743_
*1163 _0744_
*1164 _0745_
*1165 _0746_
*1166 _0747_
*1167 _0748_
*1168 _0749_
*1169 _0750_
*1170 _0751_
*1171 _0752_
*1172 _0753_
*1173 _0754_
*1174 _0755_
*1175 _0756_
*1176 _0757_
*1177 _0758_
*1178 _0759_
*1179 _0760_
*1180 _0761_
*1181 _0762_
*1182 _0763_
*1183 _0764_
*1184 _0765_
*1185 _0766_
*1186 _0767_
*1187 _0768_
*1188 _0769_
*1189 _0770_
*1190 _0771_
*1191 _0772_
*1192 _0773_
*1193 _0774_
*1194 _0775_
*1195 _0776_
*1196 _0777_
*1197 _0778_
*1198 _0779_
*1199 _0780_
*1200 _0781_
*1201 _0782_
*1202 _0783_
*1203 _0784_
*1204 _0785_
*1205 _0786_
*1206 _0787_
*1207 _0788_
*1208 _0789_
*1209 _0790_
*1210 _0791_
*1211 _0792_
*1212 _0793_
*1213 _0794_
*1214 _0795_
*1215 _0796_
*1216 _0797_
*1217 _0798_
*1218 _0799_
*1219 _0800_
*1220 _0801_
*1221 _0802_
*1222 _0803_
*1223 _0804_
*1224 _0805_
*1225 _0806_
*1226 _0807_
*1227 _0808_
*1228 _0809_
*1229 _0810_
*1230 _0811_
*1231 _0812_
*1232 _0813_
*1233 _0814_
*1234 _0815_
*1235 _0816_
*1236 _0817_
*1237 _0818_
*1238 _0819_
*1239 _0820_
*1240 _0821_
*1241 _0822_
*1242 _0823_
*1243 _0824_
*1244 _0825_
*1245 _0826_
*1246 _0827_
*1247 _0828_
*1248 _0829_
*1249 _0830_
*1250 _0831_
*1251 _0832_
*1252 _0833_
*1253 _0834_
*1254 _0835_
*1255 _0836_
*1256 _0837_
*1257 _0838_
*1258 _0839_
*1259 _0840_
*1260 _0841_
*1261 _0842_
*1262 _0843_
*1263 _0844_
*1264 _0845_
*1265 _0846_
*1266 _0847_
*1267 _0848_
*1268 _0849_
*1269 _0850_
*1270 _0851_
*1271 _0852_
*1272 _0853_
*1273 _0854_
*1274 _0855_
*1275 _0856_
*1276 _0857_
*1277 _0858_
*1278 _0859_
*1279 _0860_
*1280 _0861_
*1281 _0862_
*1282 _0863_
*1283 _0864_
*1284 _0865_
*1285 _0866_
*1286 _0867_
*1287 _0868_
*1288 _0869_
*1289 _0870_
*1290 _0871_
*1291 _0872_
*1292 _0873_
*1293 _0874_
*1294 _0875_
*1295 _0876_
*1296 _0877_
*1297 _0878_
*1298 _0879_
*1299 _0880_
*1300 mod\.buffer\[0\]
*1301 mod\.buffer\[100\]
*1302 mod\.buffer\[101\]
*1303 mod\.buffer\[102\]
*1304 mod\.buffer\[103\]
*1305 mod\.buffer\[104\]
*1306 mod\.buffer\[105\]
*1307 mod\.buffer\[106\]
*1308 mod\.buffer\[107\]
*1309 mod\.buffer\[108\]
*1310 mod\.buffer\[109\]
*1311 mod\.buffer\[10\]
*1312 mod\.buffer\[110\]
*1313 mod\.buffer\[111\]
*1314 mod\.buffer\[112\]
*1315 mod\.buffer\[113\]
*1316 mod\.buffer\[114\]
*1317 mod\.buffer\[115\]
*1318 mod\.buffer\[116\]
*1319 mod\.buffer\[117\]
*1320 mod\.buffer\[118\]
*1321 mod\.buffer\[119\]
*1322 mod\.buffer\[11\]
*1323 mod\.buffer\[120\]
*1324 mod\.buffer\[121\]
*1325 mod\.buffer\[122\]
*1326 mod\.buffer\[123\]
*1327 mod\.buffer\[124\]
*1328 mod\.buffer\[125\]
*1329 mod\.buffer\[126\]
*1330 mod\.buffer\[127\]
*1331 mod\.buffer\[128\]
*1332 mod\.buffer\[129\]
*1333 mod\.buffer\[12\]
*1334 mod\.buffer\[130\]
*1335 mod\.buffer\[131\]
*1336 mod\.buffer\[132\]
*1337 mod\.buffer\[133\]
*1338 mod\.buffer\[134\]
*1339 mod\.buffer\[135\]
*1340 mod\.buffer\[136\]
*1341 mod\.buffer\[137\]
*1342 mod\.buffer\[138\]
*1343 mod\.buffer\[139\]
*1344 mod\.buffer\[13\]
*1345 mod\.buffer\[14\]
*1346 mod\.buffer\[15\]
*1347 mod\.buffer\[16\]
*1348 mod\.buffer\[17\]
*1349 mod\.buffer\[18\]
*1350 mod\.buffer\[19\]
*1351 mod\.buffer\[1\]
*1352 mod\.buffer\[20\]
*1353 mod\.buffer\[21\]
*1354 mod\.buffer\[22\]
*1355 mod\.buffer\[23\]
*1356 mod\.buffer\[24\]
*1357 mod\.buffer\[25\]
*1358 mod\.buffer\[26\]
*1359 mod\.buffer\[27\]
*1360 mod\.buffer\[28\]
*1361 mod\.buffer\[29\]
*1362 mod\.buffer\[2\]
*1363 mod\.buffer\[30\]
*1364 mod\.buffer\[31\]
*1365 mod\.buffer\[32\]
*1366 mod\.buffer\[33\]
*1367 mod\.buffer\[34\]
*1368 mod\.buffer\[35\]
*1369 mod\.buffer\[36\]
*1370 mod\.buffer\[37\]
*1371 mod\.buffer\[38\]
*1372 mod\.buffer\[39\]
*1373 mod\.buffer\[3\]
*1374 mod\.buffer\[40\]
*1375 mod\.buffer\[41\]
*1376 mod\.buffer\[42\]
*1377 mod\.buffer\[43\]
*1378 mod\.buffer\[44\]
*1379 mod\.buffer\[45\]
*1380 mod\.buffer\[46\]
*1381 mod\.buffer\[47\]
*1382 mod\.buffer\[48\]
*1383 mod\.buffer\[49\]
*1384 mod\.buffer\[4\]
*1385 mod\.buffer\[50\]
*1386 mod\.buffer\[51\]
*1387 mod\.buffer\[52\]
*1388 mod\.buffer\[53\]
*1389 mod\.buffer\[54\]
*1390 mod\.buffer\[55\]
*1391 mod\.buffer\[56\]
*1392 mod\.buffer\[57\]
*1393 mod\.buffer\[58\]
*1394 mod\.buffer\[59\]
*1395 mod\.buffer\[5\]
*1396 mod\.buffer\[60\]
*1397 mod\.buffer\[61\]
*1398 mod\.buffer\[62\]
*1399 mod\.buffer\[63\]
*1400 mod\.buffer\[64\]
*1401 mod\.buffer\[65\]
*1402 mod\.buffer\[66\]
*1403 mod\.buffer\[67\]
*1404 mod\.buffer\[68\]
*1405 mod\.buffer\[69\]
*1406 mod\.buffer\[6\]
*1407 mod\.buffer\[70\]
*1408 mod\.buffer\[71\]
*1409 mod\.buffer\[72\]
*1410 mod\.buffer\[73\]
*1411 mod\.buffer\[74\]
*1412 mod\.buffer\[75\]
*1413 mod\.buffer\[76\]
*1414 mod\.buffer\[77\]
*1415 mod\.buffer\[78\]
*1416 mod\.buffer\[79\]
*1417 mod\.buffer\[7\]
*1418 mod\.buffer\[80\]
*1419 mod\.buffer\[81\]
*1420 mod\.buffer\[82\]
*1421 mod\.buffer\[83\]
*1422 mod\.buffer\[84\]
*1423 mod\.buffer\[85\]
*1424 mod\.buffer\[86\]
*1425 mod\.buffer\[87\]
*1426 mod\.buffer\[88\]
*1427 mod\.buffer\[89\]
*1428 mod\.buffer\[8\]
*1429 mod\.buffer\[90\]
*1430 mod\.buffer\[91\]
*1431 mod\.buffer\[92\]
*1432 mod\.buffer\[93\]
*1433 mod\.buffer\[94\]
*1434 mod\.buffer\[95\]
*1435 mod\.buffer\[96\]
*1436 mod\.buffer\[97\]
*1437 mod\.buffer\[98\]
*1438 mod\.buffer\[99\]
*1439 mod\.buffer\[9\]
*1440 mod\.counter\[0\]
*1441 mod\.counter\[1\]
*1442 mod\.counter\[2\]
*1443 net1
*1444 net10
*1445 net11
*1446 net12
*1447 net13
*1448 net14
*1449 net15
*1450 net16
*1451 net17
*1452 net18
*1453 net19
*1454 net2
*1455 net20
*1456 net21
*1457 net22
*1458 net23
*1459 net24
*1460 net25
*1461 net26
*1462 net27
*1463 net28
*1464 net29
*1465 net3
*1466 net30
*1467 net31
*1468 net32
*1469 net33
*1470 net34
*1471 net35
*1472 net36
*1473 net37
*1474 net38
*1475 net39
*1476 net4
*1477 net40
*1478 net41
*1479 net42
*1480 net43
*1481 net44
*1482 net45
*1483 net46
*1484 net47
*1485 net48
*1486 net49
*1487 net5
*1488 net50
*1489 net51
*1490 net52
*1491 net53
*1492 net54
*1493 net55
*1494 net56
*1495 net57
*1496 net58
*1497 net59
*1498 net6
*1499 net60
*1500 net61
*1501 net62
*1502 net63
*1503 net64
*1504 net65
*1505 net66
*1506 net67
*1507 net68
*1508 net69
*1509 net7
*1510 net70
*1511 net71
*1512 net72
*1513 net73
*1514 net74
*1515 net8
*1516 net9
*1517 ANTENNA__0881__I
*1518 ANTENNA__0885__A1
*1519 ANTENNA__0885__A2
*1520 ANTENNA__0886__A1
*1521 ANTENNA__0886__A2
*1522 ANTENNA__0887__I
*1523 ANTENNA__0888__A2
*1524 ANTENNA__0889__I
*1525 ANTENNA__0890__A1
*1526 ANTENNA__0890__A2
*1527 ANTENNA__0892__I
*1528 ANTENNA__0894__A2
*1529 ANTENNA__0895__I
*1530 ANTENNA__0896__I
*1531 ANTENNA__0897__I
*1532 ANTENNA__0900__I
*1533 ANTENNA__0902__I0
*1534 ANTENNA__0903__A1
*1535 ANTENNA__0903__A2
*1536 ANTENNA__0903__B
*1537 ANTENNA__0904__I
*1538 ANTENNA__0906__A2
*1539 ANTENNA__0907__I
*1540 ANTENNA__0908__I
*1541 ANTENNA__0909__I
*1542 ANTENNA__0911__I
*1543 ANTENNA__0913__I
*1544 ANTENNA__0914__I
*1545 ANTENNA__0917__I
*1546 ANTENNA__0920__A1
*1547 ANTENNA__0920__A2
*1548 ANTENNA__0921__I
*1549 ANTENNA__0923__I
*1550 ANTENNA__0925__A1
*1551 ANTENNA__0925__A2
*1552 ANTENNA__0927__A1
*1553 ANTENNA__0928__I
*1554 ANTENNA__0930__I
*1555 ANTENNA__0931__A1
*1556 ANTENNA__0932__A1
*1557 ANTENNA__0933__I
*1558 ANTENNA__0935__A1
*1559 ANTENNA__0935__B1
*1560 ANTENNA__0935__B2
*1561 ANTENNA__0935__C
*1562 ANTENNA__0937__I
*1563 ANTENNA__0938__A1
*1564 ANTENNA__0940__I
*1565 ANTENNA__0941__A1
*1566 ANTENNA__0941__A2
*1567 ANTENNA__0941__B
*1568 ANTENNA__0942__I
*1569 ANTENNA__0943__A1
*1570 ANTENNA__0945__I
*1571 ANTENNA__0946__A3
*1572 ANTENNA__0947__A1
*1573 ANTENNA__0947__A2
*1574 ANTENNA__0950__A1
*1575 ANTENNA__0951__A1
*1576 ANTENNA__0953__A1
*1577 ANTENNA__0953__A2
*1578 ANTENNA__0953__A3
*1579 ANTENNA__0953__A4
*1580 ANTENNA__0955__A1
*1581 ANTENNA__0955__A2
*1582 ANTENNA__0956__I
*1583 ANTENNA__0958__A1
*1584 ANTENNA__0959__A2
*1585 ANTENNA__0960__A1
*1586 ANTENNA__0960__A2
*1587 ANTENNA__0960__B
*1588 ANTENNA__0961__I
*1589 ANTENNA__0962__I
*1590 ANTENNA__0963__A1
*1591 ANTENNA__0963__B2
*1592 ANTENNA__0964__I
*1593 ANTENNA__0965__I
*1594 ANTENNA__0966__A1
*1595 ANTENNA__0966__C
*1596 ANTENNA__0967__I
*1597 ANTENNA__0971__A1
*1598 ANTENNA__0972__A1
*1599 ANTENNA__0972__B
*1600 ANTENNA__0977__A1
*1601 ANTENNA__0979__A1
*1602 ANTENNA__0980__I
*1603 ANTENNA__0982__I
*1604 ANTENNA__0983__I
*1605 ANTENNA__0984__A2
*1606 ANTENNA__0985__A1
*1607 ANTENNA__0985__A2
*1608 ANTENNA__0985__A3
*1609 ANTENNA__0985__B
*1610 ANTENNA__0986__A2
*1611 ANTENNA__0989__A1
*1612 ANTENNA__0989__A2
*1613 ANTENNA__0991__A2
*1614 ANTENNA__0992__A1
*1615 ANTENNA__0993__A1
*1616 ANTENNA__0993__A2
*1617 ANTENNA__0993__B
*1618 ANTENNA__0994__I
*1619 ANTENNA__0997__A1
*1620 ANTENNA__0997__B
*1621 ANTENNA__0998__I
*1622 ANTENNA__0999__A1
*1623 ANTENNA__1000__A1
*1624 ANTENNA__1000__A2
*1625 ANTENNA__1003__A2
*1626 ANTENNA__1003__A3
*1627 ANTENNA__1004__A1
*1628 ANTENNA__1004__A2
*1629 ANTENNA__1005__A1
*1630 ANTENNA__1005__A2
*1631 ANTENNA__1005__A4
*1632 ANTENNA__1008__A1
*1633 ANTENNA__1008__A2
*1634 ANTENNA__1008__A3
*1635 ANTENNA__1008__B2
*1636 ANTENNA__1008__B3
*1637 ANTENNA__1009__I
*1638 ANTENNA__1011__I
*1639 ANTENNA__1012__I
*1640 ANTENNA__1013__B2
*1641 ANTENNA__1013__C
*1642 ANTENNA__1014__A1
*1643 ANTENNA__1015__I
*1644 ANTENNA__1019__A2
*1645 ANTENNA__1020__A1
*1646 ANTENNA__1020__A2
*1647 ANTENNA__1023__I
*1648 ANTENNA__1024__A1
*1649 ANTENNA__1024__A2
*1650 ANTENNA__1024__B
*1651 ANTENNA__1025__I
*1652 ANTENNA__1026__A1
*1653 ANTENNA__1026__A2
*1654 ANTENNA__1026__A3
*1655 ANTENNA__1027__A1
*1656 ANTENNA__1027__A2
*1657 ANTENNA__1030__I
*1658 ANTENNA__1031__I
*1659 ANTENNA__1032__A1
*1660 ANTENNA__1032__A2
*1661 ANTENNA__1032__C
*1662 ANTENNA__1033__I
*1663 ANTENNA__1034__I
*1664 ANTENNA__1035__A2
*1665 ANTENNA__1035__C
*1666 ANTENNA__1036__I
*1667 ANTENNA__1037__I
*1668 ANTENNA__1038__I
*1669 ANTENNA__1039__I
*1670 ANTENNA__1040__A2
*1671 ANTENNA__1041__A1
*1672 ANTENNA__1041__A2
*1673 ANTENNA__1042__I
*1674 ANTENNA__1043__A1
*1675 ANTENNA__1043__B
*1676 ANTENNA__1044__A1
*1677 ANTENNA__1044__B
*1678 ANTENNA__1045__A1
*1679 ANTENNA__1045__A2
*1680 ANTENNA__1048__A2
*1681 ANTENNA__1049__I
*1682 ANTENNA__1051__I
*1683 ANTENNA__1052__I
*1684 ANTENNA__1054__A2
*1685 ANTENNA__1057__A1
*1686 ANTENNA__1057__A2
*1687 ANTENNA__1057__A3
*1688 ANTENNA__1057__A4
*1689 ANTENNA__1058__I
*1690 ANTENNA__1059__A1
*1691 ANTENNA__1059__A2
*1692 ANTENNA__1061__I
*1693 ANTENNA__1063__A2
*1694 ANTENNA__1064__I
*1695 ANTENNA__1065__I
*1696 ANTENNA__1066__A1
*1697 ANTENNA__1066__A2
*1698 ANTENNA__1067__A1
*1699 ANTENNA__1067__A2
*1700 ANTENNA__1067__A4
*1701 ANTENNA__1068__A1
*1702 ANTENNA__1069__I
*1703 ANTENNA__1070__A1
*1704 ANTENNA__1071__I
*1705 ANTENNA__1072__A1
*1706 ANTENNA__1072__A2
*1707 ANTENNA__1073__I
*1708 ANTENNA__1074__I
*1709 ANTENNA__1075__A1
*1710 ANTENNA__1075__A2
*1711 ANTENNA__1075__B1
*1712 ANTENNA__1075__B2
*1713 ANTENNA__1075__C
*1714 ANTENNA__1077__I
*1715 ANTENNA__1079__C
*1716 ANTENNA__1081__I
*1717 ANTENNA__1082__A1
*1718 ANTENNA__1082__A2
*1719 ANTENNA__1084__A1
*1720 ANTENNA__1084__A2
*1721 ANTENNA__1085__A1
*1722 ANTENNA__1085__A2
*1723 ANTENNA__1086__I
*1724 ANTENNA__1088__A1
*1725 ANTENNA__1088__A2
*1726 ANTENNA__1089__A2
*1727 ANTENNA__1089__B2
*1728 ANTENNA__1090__A2
*1729 ANTENNA__1092__A2
*1730 ANTENNA__1094__I
*1731 ANTENNA__1095__I
*1732 ANTENNA__1097__I
*1733 ANTENNA__1098__I
*1734 ANTENNA__1100__A1
*1735 ANTENNA__1104__A2
*1736 ANTENNA__1104__B
*1737 ANTENNA__1107__A1
*1738 ANTENNA__1107__A2
*1739 ANTENNA__1107__A3
*1740 ANTENNA__1108__A1
*1741 ANTENNA__1108__A2
*1742 ANTENNA__1109__A1
*1743 ANTENNA__1109__A3
*1744 ANTENNA__1109__B1
*1745 ANTENNA__1110__A1
*1746 ANTENNA__1111__I
*1747 ANTENNA__1115__I
*1748 ANTENNA__1116__A1
*1749 ANTENNA__1116__A2
*1750 ANTENNA__1116__A3
*1751 ANTENNA__1117__A1
*1752 ANTENNA__1117__A2
*1753 ANTENNA__1117__A3
*1754 ANTENNA__1118__A1
*1755 ANTENNA__1120__A1
*1756 ANTENNA__1120__A2
*1757 ANTENNA__1123__A1
*1758 ANTENNA__1123__B
*1759 ANTENNA__1124__A1
*1760 ANTENNA__1124__B
*1761 ANTENNA__1124__C
*1762 ANTENNA__1125__I
*1763 ANTENNA__1126__B
*1764 ANTENNA__1127__I
*1765 ANTENNA__1128__I
*1766 ANTENNA__1129__A1
*1767 ANTENNA__1130__A1
*1768 ANTENNA__1130__A2
*1769 ANTENNA__1131__A1
*1770 ANTENNA__1131__A2
*1771 ANTENNA__1131__B
*1772 ANTENNA__1133__A1
*1773 ANTENNA__1133__B
*1774 ANTENNA__1135__A1
*1775 ANTENNA__1135__C
*1776 ANTENNA__1136__A1
*1777 ANTENNA__1137__A1
*1778 ANTENNA__1137__A2
*1779 ANTENNA__1138__A1
*1780 ANTENNA__1138__B
*1781 ANTENNA__1139__A1
*1782 ANTENNA__1139__A2
*1783 ANTENNA__1140__A1
*1784 ANTENNA__1143__B
*1785 ANTENNA__1143__C
*1786 ANTENNA__1144__A1
*1787 ANTENNA__1144__B
*1788 ANTENNA__1145__A1
*1789 ANTENNA__1145__A2
*1790 ANTENNA__1145__A3
*1791 ANTENNA__1146__B2
*1792 ANTENNA__1147__I
*1793 ANTENNA__1148__A1
*1794 ANTENNA__1148__B1
*1795 ANTENNA__1148__B2
*1796 ANTENNA__1150__A2
*1797 ANTENNA__1151__I
*1798 ANTENNA__1153__A1
*1799 ANTENNA__1153__A3
*1800 ANTENNA__1155__A1
*1801 ANTENNA__1155__A2
*1802 ANTENNA__1156__A2
*1803 ANTENNA__1156__A3
*1804 ANTENNA__1157__A1
*1805 ANTENNA__1157__A2
*1806 ANTENNA__1157__A3
*1807 ANTENNA__1157__A4
*1808 ANTENNA__1159__A1
*1809 ANTENNA__1159__A2
*1810 ANTENNA__1159__B
*1811 ANTENNA__1160__A1
*1812 ANTENNA__1161__A2
*1813 ANTENNA__1162__A1
*1814 ANTENNA__1162__A2
*1815 ANTENNA__1163__A1
*1816 ANTENNA__1163__A2
*1817 ANTENNA__1163__B
*1818 ANTENNA__1165__A1
*1819 ANTENNA__1165__B2
*1820 ANTENNA__1165__C
*1821 ANTENNA__1167__A1
*1822 ANTENNA__1167__A2
*1823 ANTENNA__1168__I
*1824 ANTENNA__1169__A2
*1825 ANTENNA__1170__A1
*1826 ANTENNA__1170__A2
*1827 ANTENNA__1171__A1
*1828 ANTENNA__1171__A2
*1829 ANTENNA__1172__A1
*1830 ANTENNA__1172__A2
*1831 ANTENNA__1172__B2
*1832 ANTENNA__1174__B2
*1833 ANTENNA__1174__C
*1834 ANTENNA__1175__A1
*1835 ANTENNA__1175__A2
*1836 ANTENNA__1176__A1
*1837 ANTENNA__1177__I
*1838 ANTENNA__1178__A1
*1839 ANTENNA__1178__A2
*1840 ANTENNA__1179__A1
*1841 ANTENNA__1179__A3
*1842 ANTENNA__1182__A1
*1843 ANTENNA__1182__A2
*1844 ANTENNA__1183__A1
*1845 ANTENNA__1183__A2
*1846 ANTENNA__1185__A1
*1847 ANTENNA__1185__A2
*1848 ANTENNA__1186__A1
*1849 ANTENNA__1186__A2
*1850 ANTENNA__1187__A1
*1851 ANTENNA__1188__A1
*1852 ANTENNA__1188__A2
*1853 ANTENNA__1189__I
*1854 ANTENNA__1190__A1
*1855 ANTENNA__1190__A2
*1856 ANTENNA__1190__B
*1857 ANTENNA__1191__I
*1858 ANTENNA__1192__A1
*1859 ANTENNA__1192__A2
*1860 ANTENNA__1192__B
*1861 ANTENNA__1193__A1
*1862 ANTENNA__1193__A2