*SPEF "ieee 1481-1999"
*DESIGN "user_project_wrapper"
*DATE "11:11:11 Fri 11 11, 1111"
*VENDOR "OpenRCX"
*PROGRAM "Parallel Extraction"
*VERSION "1.0"
*DESIGN_FLOW "NAME_SCOPE LOCAL" "PIN_CAP NONE"
*DIVIDER /
*DELIMITER :
*BUS_DELIMITER []
*T_UNIT 1 NS
*C_UNIT 1 PF
*R_UNIT 1 OHM
*L_UNIT 1 HENRY

*NAME_MAP
*1 io_in[0]
*2 io_in[10]
*3 io_in[11]
*4 io_in[12]
*5 io_in[13]
*6 io_in[14]
*7 io_in[15]
*8 io_in[16]
*9 io_in[17]
*10 io_in[18]
*11 io_in[19]
*12 io_in[1]
*13 io_in[20]
*14 io_in[21]
*15 io_in[22]
*16 io_in[23]
*17 io_in[24]
*18 io_in[25]
*19 io_in[26]
*20 io_in[27]
*21 io_in[28]
*22 io_in[29]
*23 io_in[2]
*24 io_in[30]
*25 io_in[31]
*26 io_in[32]
*27 io_in[33]
*28 io_in[34]
*29 io_in[35]
*30 io_in[36]
*31 io_in[37]
*32 io_in[3]
*33 io_in[4]
*34 io_in[5]
*35 io_in[6]
*36 io_in[7]
*37 io_in[8]
*38 io_in[9]
*39 io_oeb[0]
*40 io_oeb[10]
*41 io_oeb[11]
*42 io_oeb[12]
*43 io_oeb[13]
*44 io_oeb[14]
*45 io_oeb[15]
*46 io_oeb[16]
*47 io_oeb[17]
*48 io_oeb[18]
*49 io_oeb[19]
*50 io_oeb[1]
*51 io_oeb[20]
*52 io_oeb[21]
*53 io_oeb[22]
*54 io_oeb[23]
*55 io_oeb[24]
*56 io_oeb[25]
*57 io_oeb[26]
*58 io_oeb[27]
*59 io_oeb[28]
*60 io_oeb[29]
*61 io_oeb[2]
*62 io_oeb[30]
*63 io_oeb[31]
*64 io_oeb[32]
*65 io_oeb[33]
*66 io_oeb[34]
*67 io_oeb[35]
*68 io_oeb[36]
*69 io_oeb[37]
*70 io_oeb[3]
*71 io_oeb[4]
*72 io_oeb[5]
*73 io_oeb[6]
*74 io_oeb[7]
*75 io_oeb[8]
*76 io_oeb[9]
*77 io_out[0]
*78 io_out[10]
*79 io_out[11]
*80 io_out[12]
*81 io_out[13]
*82 io_out[14]
*83 io_out[15]
*84 io_out[16]
*85 io_out[17]
*86 io_out[18]
*87 io_out[19]
*88 io_out[1]
*89 io_out[20]
*90 io_out[21]
*91 io_out[22]
*92 io_out[23]
*93 io_out[24]
*94 io_out[25]
*95 io_out[26]
*96 io_out[27]
*97 io_out[28]
*98 io_out[29]
*99 io_out[2]
*100 io_out[30]
*101 io_out[31]
*102 io_out[32]
*103 io_out[33]
*104 io_out[34]
*105 io_out[35]
*106 io_out[36]
*107 io_out[37]
*108 io_out[3]
*109 io_out[4]
*110 io_out[5]
*111 io_out[6]
*112 io_out[7]
*113 io_out[8]
*114 io_out[9]
*115 la_data_in[0]
*116 la_data_in[10]
*117 la_data_in[11]
*118 la_data_in[12]
*119 la_data_in[13]
*120 la_data_in[14]
*121 la_data_in[15]
*122 la_data_in[16]
*123 la_data_in[17]
*124 la_data_in[18]
*125 la_data_in[19]
*126 la_data_in[1]
*127 la_data_in[20]
*128 la_data_in[21]
*129 la_data_in[22]
*130 la_data_in[23]
*131 la_data_in[24]
*132 la_data_in[25]
*133 la_data_in[26]
*134 la_data_in[27]
*135 la_data_in[28]
*136 la_data_in[29]
*137 la_data_in[2]
*138 la_data_in[30]
*139 la_data_in[31]
*140 la_data_in[32]
*141 la_data_in[33]
*142 la_data_in[34]
*143 la_data_in[35]
*144 la_data_in[36]
*145 la_data_in[37]
*146 la_data_in[38]
*147 la_data_in[39]
*148 la_data_in[3]
*149 la_data_in[40]
*150 la_data_in[41]
*151 la_data_in[42]
*152 la_data_in[43]
*153 la_data_in[44]
*154 la_data_in[45]
*155 la_data_in[46]
*156 la_data_in[47]
*157 la_data_in[48]
*158 la_data_in[49]
*159 la_data_in[4]
*160 la_data_in[50]
*161 la_data_in[51]
*162 la_data_in[52]
*163 la_data_in[53]
*164 la_data_in[54]
*165 la_data_in[55]
*166 la_data_in[56]
*167 la_data_in[57]
*168 la_data_in[58]
*169 la_data_in[59]
*170 la_data_in[5]
*171 la_data_in[60]
*172 la_data_in[61]
*173 la_data_in[62]
*174 la_data_in[63]
*175 la_data_in[6]
*176 la_data_in[7]
*177 la_data_in[8]
*178 la_data_in[9]
*179 la_data_out[0]
*180 la_data_out[10]
*181 la_data_out[11]
*182 la_data_out[12]
*183 la_data_out[13]
*184 la_data_out[14]
*185 la_data_out[15]
*186 la_data_out[16]
*187 la_data_out[17]
*188 la_data_out[18]
*189 la_data_out[19]
*190 la_data_out[1]
*191 la_data_out[20]
*192 la_data_out[21]
*193 la_data_out[22]
*194 la_data_out[23]
*195 la_data_out[24]
*196 la_data_out[25]
*197 la_data_out[26]
*198 la_data_out[27]
*199 la_data_out[28]
*200 la_data_out[29]
*201 la_data_out[2]
*202 la_data_out[30]
*203 la_data_out[31]
*204 la_data_out[32]
*205 la_data_out[33]
*206 la_data_out[34]
*207 la_data_out[35]
*208 la_data_out[36]
*209 la_data_out[37]
*210 la_data_out[38]
*211 la_data_out[39]
*212 la_data_out[3]
*213 la_data_out[40]
*214 la_data_out[41]
*215 la_data_out[42]
*216 la_data_out[43]
*217 la_data_out[44]
*218 la_data_out[45]
*219 la_data_out[46]
*220 la_data_out[47]
*221 la_data_out[48]
*222 la_data_out[49]
*223 la_data_out[4]
*224 la_data_out[50]
*225 la_data_out[51]
*226 la_data_out[52]
*227 la_data_out[53]
*228 la_data_out[54]
*229 la_data_out[55]
*230 la_data_out[56]
*231 la_data_out[57]
*232 la_data_out[58]
*233 la_data_out[59]
*234 la_data_out[5]
*235 la_data_out[60]
*236 la_data_out[61]
*237 la_data_out[62]
*238 la_data_out[63]
*239 la_data_out[6]
*240 la_data_out[7]
*241 la_data_out[8]
*242 la_data_out[9]
*243 la_oenb[0]
*244 la_oenb[10]
*245 la_oenb[11]
*246 la_oenb[12]
*247 la_oenb[13]
*248 la_oenb[14]
*249 la_oenb[15]
*250 la_oenb[16]
*251 la_oenb[17]
*252 la_oenb[18]
*253 la_oenb[19]
*254 la_oenb[1]
*255 la_oenb[20]
*256 la_oenb[21]
*257 la_oenb[22]
*258 la_oenb[23]
*259 la_oenb[24]
*260 la_oenb[25]
*261 la_oenb[26]
*262 la_oenb[27]
*263 la_oenb[28]
*264 la_oenb[29]
*265 la_oenb[2]
*266 la_oenb[30]
*267 la_oenb[31]
*268 la_oenb[32]
*269 la_oenb[33]
*270 la_oenb[34]
*271 la_oenb[35]
*272 la_oenb[36]
*273 la_oenb[37]
*274 la_oenb[38]
*275 la_oenb[39]
*276 la_oenb[3]
*277 la_oenb[40]
*278 la_oenb[41]
*279 la_oenb[42]
*280 la_oenb[43]
*281 la_oenb[44]
*282 la_oenb[45]
*283 la_oenb[46]
*284 la_oenb[47]
*285 la_oenb[48]
*286 la_oenb[49]
*287 la_oenb[4]
*288 la_oenb[50]
*289 la_oenb[51]
*290 la_oenb[52]
*291 la_oenb[53]
*292 la_oenb[54]
*293 la_oenb[55]
*294 la_oenb[56]
*295 la_oenb[57]
*296 la_oenb[58]
*297 la_oenb[59]
*298 la_oenb[5]
*299 la_oenb[60]
*300 la_oenb[61]
*301 la_oenb[62]
*302 la_oenb[63]
*303 la_oenb[6]
*304 la_oenb[7]
*305 la_oenb[8]
*306 la_oenb[9]
*307 user_clock2
*308 user_irq[0]
*309 user_irq[1]
*310 user_irq[2]
*313 wb_clk_i
*314 wb_rst_i
*315 wbs_ack_o
*316 wbs_adr_i[0]
*317 wbs_adr_i[10]
*318 wbs_adr_i[11]
*319 wbs_adr_i[12]
*320 wbs_adr_i[13]
*321 wbs_adr_i[14]
*322 wbs_adr_i[15]
*323 wbs_adr_i[16]
*324 wbs_adr_i[17]
*325 wbs_adr_i[18]
*326 wbs_adr_i[19]
*327 wbs_adr_i[1]
*328 wbs_adr_i[20]
*329 wbs_adr_i[21]
*330 wbs_adr_i[22]
*331 wbs_adr_i[23]
*332 wbs_adr_i[24]
*333 wbs_adr_i[25]
*334 wbs_adr_i[26]
*335 wbs_adr_i[27]
*336 wbs_adr_i[28]
*337 wbs_adr_i[29]
*338 wbs_adr_i[2]
*339 wbs_adr_i[30]
*340 wbs_adr_i[31]
*341 wbs_adr_i[3]
*342 wbs_adr_i[4]
*343 wbs_adr_i[5]
*344 wbs_adr_i[6]
*345 wbs_adr_i[7]
*346 wbs_adr_i[8]
*347 wbs_adr_i[9]
*348 wbs_cyc_i
*349 wbs_dat_i[0]
*350 wbs_dat_i[10]
*351 wbs_dat_i[11]
*352 wbs_dat_i[12]
*353 wbs_dat_i[13]
*354 wbs_dat_i[14]
*355 wbs_dat_i[15]
*356 wbs_dat_i[16]
*357 wbs_dat_i[17]
*358 wbs_dat_i[18]
*359 wbs_dat_i[19]
*360 wbs_dat_i[1]
*361 wbs_dat_i[20]
*362 wbs_dat_i[21]
*363 wbs_dat_i[22]
*364 wbs_dat_i[23]
*365 wbs_dat_i[24]
*366 wbs_dat_i[25]
*367 wbs_dat_i[26]
*368 wbs_dat_i[27]
*369 wbs_dat_i[28]
*370 wbs_dat_i[29]
*371 wbs_dat_i[2]
*372 wbs_dat_i[30]
*373 wbs_dat_i[31]
*374 wbs_dat_i[3]
*375 wbs_dat_i[4]
*376 wbs_dat_i[5]
*377 wbs_dat_i[6]
*378 wbs_dat_i[7]
*379 wbs_dat_i[8]
*380 wbs_dat_i[9]
*381 wbs_dat_o[0]
*382 wbs_dat_o[10]
*383 wbs_dat_o[11]
*384 wbs_dat_o[12]
*385 wbs_dat_o[13]
*386 wbs_dat_o[14]
*387 wbs_dat_o[15]
*388 wbs_dat_o[16]
*389 wbs_dat_o[17]
*390 wbs_dat_o[18]
*391 wbs_dat_o[19]
*392 wbs_dat_o[1]
*393 wbs_dat_o[20]
*394 wbs_dat_o[21]
*395 wbs_dat_o[22]
*396 wbs_dat_o[23]
*397 wbs_dat_o[24]
*398 wbs_dat_o[25]
*399 wbs_dat_o[26]
*400 wbs_dat_o[27]
*401 wbs_dat_o[28]
*402 wbs_dat_o[29]
*403 wbs_dat_o[2]
*404 wbs_dat_o[30]
*405 wbs_dat_o[31]
*406 wbs_dat_o[3]
*407 wbs_dat_o[4]
*408 wbs_dat_o[5]
*409 wbs_dat_o[6]
*410 wbs_dat_o[7]
*411 wbs_dat_o[8]
*412 wbs_dat_o[9]
*413 wbs_sel_i[0]
*414 wbs_sel_i[1]
*415 wbs_sel_i[2]
*416 wbs_sel_i[3]
*417 wbs_stb_i
*418 wbs_we_i
*419 mprj

*PORTS
io_in[0] I
io_in[10] I
io_in[11] I
io_in[12] I
io_in[13] I
io_in[14] I
io_in[15] I
io_in[16] I
io_in[17] I
io_in[18] I
io_in[19] I
io_in[1] I
io_in[20] I
io_in[21] I
io_in[22] I
io_in[23] I
io_in[24] I
io_in[25] I
io_in[26] I
io_in[27] I
io_in[28] I
io_in[29] I
io_in[2] I
io_in[30] I
io_in[31] I
io_in[32] I
io_in[33] I
io_in[34] I
io_in[35] I
io_in[36] I
io_in[37] I
io_in[3] I
io_in[4] I
io_in[5] I
io_in[6] I
io_in[7] I
io_in[8] I
io_in[9] I
io_oeb[0] O
io_oeb[10] O
io_oeb[11] O
io_oeb[12] O
io_oeb[13] O
io_oeb[14] O
io_oeb[15] O
io_oeb[16] O
io_oeb[17] O
io_oeb[18] O
io_oeb[19] O
io_oeb[1] O
io_oeb[20] O
io_oeb[21] O
io_oeb[22] O
io_oeb[23] O
io_oeb[24] O
io_oeb[25] O
io_oeb[26] O
io_oeb[27] O
io_oeb[28] O
io_oeb[29] O
io_oeb[2] O
io_oeb[30] O
io_oeb[31] O
io_oeb[32] O
io_oeb[33] O
io_oeb[34] O
io_oeb[35] O
io_oeb[36] O
io_oeb[37] O
io_oeb[3] O
io_oeb[4] O
io_oeb[5] O
io_oeb[6] O
io_oeb[7] O
io_oeb[8] O
io_oeb[9] O
io_out[0] O
io_out[10] O
io_out[11] O
io_out[12] O
io_out[13] O
io_out[14] O
io_out[15] O
io_out[16] O
io_out[17] O
io_out[18] O
io_out[19] O
io_out[1] O
io_out[20] O
io_out[21] O
io_out[22] O
io_out[23] O
io_out[24] O
io_out[25] O
io_out[26] O
io_out[27] O
io_out[28] O
io_out[29] O
io_out[2] O
io_out[30] O
io_out[31] O
io_out[32] O
io_out[33] O
io_out[34] O
io_out[35] O
io_out[36] O
io_out[37] O
io_out[3] O
io_out[4] O
io_out[5] O
io_out[6] O
io_out[7] O
io_out[8] O
io_out[9] O
la_data_in[0] I
la_data_in[10] I
la_data_in[11] I
la_data_in[12] I
la_data_in[13] I
la_data_in[14] I
la_data_in[15] I
la_data_in[16] I
la_data_in[17] I
la_data_in[18] I
la_data_in[19] I
la_data_in[1] I
la_data_in[20] I
la_data_in[21] I
la_data_in[22] I
la_data_in[23] I
la_data_in[24] I
la_data_in[25] I
la_data_in[26] I
la_data_in[27] I
la_data_in[28] I
la_data_in[29] I
la_data_in[2] I
la_data_in[30] I
la_data_in[31] I
la_data_in[32] I
la_data_in[33] I
la_data_in[34] I
la_data_in[35] I
la_data_in[36] I
la_data_in[37] I
la_data_in[38] I
la_data_in[39] I
la_data_in[3] I
la_data_in[40] I
la_data_in[41] I
la_data_in[42] I
la_data_in[43] I
la_data_in[44] I
la_data_in[45] I
la_data_in[46] I
la_data_in[47] I
la_data_in[48] I
la_data_in[49] I
la_data_in[4] I
la_data_in[50] I
la_data_in[51] I
la_data_in[52] I
la_data_in[53] I
la_data_in[54] I
la_data_in[55] I
la_data_in[56] I
la_data_in[57] I
la_data_in[58] I
la_data_in[59] I
la_data_in[5] I
la_data_in[60] I
la_data_in[61] I
la_data_in[62] I
la_data_in[63] I
la_data_in[6] I
la_data_in[7] I
la_data_in[8] I
la_data_in[9] I
la_data_out[0] O
la_data_out[10] O
la_data_out[11] O
la_data_out[12] O
la_data_out[13] O
la_data_out[14] O
la_data_out[15] O
la_data_out[16] O
la_data_out[17] O
la_data_out[18] O
la_data_out[19] O
la_data_out[1] O
la_data_out[20] O
la_data_out[21] O
la_data_out[22] O
la_data_out[23] O
la_data_out[24] O
la_data_out[25] O
la_data_out[26] O
la_data_out[27] O
la_data_out[28] O
la_data_out[29] O
la_data_out[2] O
la_data_out[30] O
la_data_out[31] O
la_data_out[32] O
la_data_out[33] O
la_data_out[34] O
la_data_out[35] O
la_data_out[36] O
la_data_out[37] O
la_data_out[38] O
la_data_out[39] O
la_data_out[3] O
la_data_out[40] O
la_data_out[41] O
la_data_out[42] O
la_data_out[43] O
la_data_out[44] O
la_data_out[45] O
la_data_out[46] O
la_data_out[47] O
la_data_out[48] O
la_data_out[49] O
la_data_out[4] O
la_data_out[50] O
la_data_out[51] O
la_data_out[52] O
la_data_out[53] O
la_data_out[54] O
la_data_out[55] O
la_data_out[56] O
la_data_out[57] O
la_data_out[58] O
la_data_out[59] O
la_data_out[5] O
la_data_out[60] O
la_data_out[61] O
la_data_out[62] O
la_data_out[63] O
la_data_out[6] O
la_data_out[7] O
la_data_out[8] O
la_data_out[9] O
la_oenb[0] I
la_oenb[10] I
la_oenb[11] I
la_oenb[12] I
la_oenb[13] I
la_oenb[14] I
la_oenb[15] I
la_oenb[16] I
la_oenb[17] I
la_oenb[18] I
la_oenb[19] I
la_oenb[1] I
la_oenb[20] I
la_oenb[21] I
la_oenb[22] I
la_oenb[23] I
la_oenb[24] I
la_oenb[25] I
la_oenb[26] I
la_oenb[27] I
la_oenb[28] I
la_oenb[29] I
la_oenb[2] I
la_oenb[30] I
la_oenb[31] I
la_oenb[32] I
la_oenb[33] I
la_oenb[34] I
la_oenb[35] I
la_oenb[36] I
la_oenb[37] I
la_oenb[38] I
la_oenb[39] I
la_oenb[3] I
la_oenb[40] I
la_oenb[41] I
la_oenb[42] I
la_oenb[43] I
la_oenb[44] I
la_oenb[45] I
la_oenb[46] I
la_oenb[47] I
la_oenb[48] I
la_oenb[49] I
la_oenb[4] I
la_oenb[50] I
la_oenb[51] I
la_oenb[52] I
la_oenb[53] I
la_oenb[54] I
la_oenb[55] I
la_oenb[56] I
la_oenb[57] I
la_oenb[58] I
la_oenb[59] I
la_oenb[5] I
la_oenb[60] I
la_oenb[61] I
la_oenb[62] I
la_oenb[63] I
la_oenb[6] I
la_oenb[7] I
la_oenb[8] I
la_oenb[9] I
user_clock2 I
user_irq[0] O
user_irq[1] O
user_irq[2] O
wb_clk_i I
wb_rst_i I
wbs_ack_o O
wbs_adr_i[0] I
wbs_adr_i[10] I
wbs_adr_i[11] I
wbs_adr_i[12] I
wbs_adr_i[13] I
wbs_adr_i[14] I
wbs_adr_i[15] I
wbs_adr_i[16] I
wbs_adr_i[17] I
wbs_adr_i[18] I
wbs_adr_i[19] I
wbs_adr_i[1] I
wbs_adr_i[20] I
wbs_adr_i[21] I
wbs_adr_i[22] I
wbs_adr_i[23] I
wbs_adr_i[24] I
wbs_adr_i[25] I
wbs_adr_i[26] I
wbs_adr_i[27] I
wbs_adr_i[28] I
wbs_adr_i[29] I
wbs_adr_i[2] I
wbs_adr_i[30] I
wbs_adr_i[31] I
wbs_adr_i[3] I
wbs_adr_i[4] I
wbs_adr_i[5] I
wbs_adr_i[6] I
wbs_adr_i[7] I
wbs_adr_i[8] I
wbs_adr_i[9] I
wbs_cyc_i I
wbs_dat_i[0] I
wbs_dat_i[10] I
wbs_dat_i[11] I
wbs_dat_i[12] I
wbs_dat_i[13] I
wbs_dat_i[14] I
wbs_dat_i[15] I
wbs_dat_i[16] I
wbs_dat_i[17] I
wbs_dat_i[18] I
wbs_dat_i[19] I
wbs_dat_i[1] I
wbs_dat_i[20] I
wbs_dat_i[21] I
wbs_dat_i[22] I
wbs_dat_i[23] I
wbs_dat_i[24] I
wbs_dat_i[25] I
wbs_dat_i[26] I
wbs_dat_i[27] I
wbs_dat_i[28] I
wbs_dat_i[29] I
wbs_dat_i[2] I
wbs_dat_i[30] I
wbs_dat_i[31] I
wbs_dat_i[3] I
wbs_dat_i[4] I
wbs_dat_i[5] I
wbs_dat_i[6] I
wbs_dat_i[7] I
wbs_dat_i[8] I
wbs_dat_i[9] I
wbs_dat_o[0] O
wbs_dat_o[10] O
wbs_dat_o[11] O
wbs_dat_o[12] O
wbs_dat_o[13] O
wbs_dat_o[14] O
wbs_dat_o[15] O
wbs_dat_o[16] O
wbs_dat_o[17] O
wbs_dat_o[18] O
wbs_dat_o[19] O
wbs_dat_o[1] O
wbs_dat_o[20] O
wbs_dat_o[21] O
wbs_dat_o[22] O
wbs_dat_o[23] O
wbs_dat_o[24] O
wbs_dat_o[25] O
wbs_dat_o[26] O
wbs_dat_o[27] O
wbs_dat_o[28] O
wbs_dat_o[29] O
wbs_dat_o[2] O
wbs_dat_o[30] O
wbs_dat_o[31] O
wbs_dat_o[3] O
wbs_dat_o[4] O
wbs_dat_o[5] O
wbs_dat_o[6] O
wbs_dat_o[7] O
wbs_dat_o[8] O
wbs_dat_o[9] O
wbs_sel_i[0] I
wbs_sel_i[1] I
wbs_sel_i[2] I
wbs_sel_i[3] I
wbs_stb_i I
wbs_we_i I

*D_NET *1 0.608766
*CONN
*P io_in[0] I
*I *419:io_in[0] I *D tiny_user_project
*CAP
1 io_in[0] 0.00458766
2 *419:io_in[0] 0.00244397
3 *1:14 0.0253465
4 *1:13 0.0229025
5 *1:11 0.0552116
6 *1:10 0.0597993
7 *419:io_in[0] *261:57 5.16408e-05
8 *1:11 *128:16 0.0632016
9 *1:11 *150:16 0.0707286
10 *1:14 *134:11 0.216851
11 *1:14 *263:19 0.0876409
*RES
1 io_in[0] *1:10 44.775 
2 *1:10 *1:11 576.99 
3 *1:11 *1:13 4.5 
4 *1:13 *1:14 555.03 
5 *1:14 *419:io_in[0] 29.16 
*END

*D_NET *2 0.398712
*CONN
*P io_in[10] I
*I *419:io_in[10] I *D tiny_user_project
*CAP
1 io_in[10] 0.00114287
2 *419:io_in[10] 0.00145923
3 *2:14 0.00815589
4 *2:13 0.00669666
5 *2:11 0.0397079
6 *2:10 0.0397079
7 *2:8 6.87358e-05
8 *2:7 0.0012116
9 *419:io_in[10] *261:57 8.4789e-06
10 *2:8 *38:8 0.020434
11 *2:8 *44:11 0.020442
12 *2:11 *38:11 0
13 *2:11 *38:17 0.0162208
14 *2:11 *60:13 0.000578344
15 *2:11 *68:10 0.0704081
16 *2:11 *100:10 0.113442
17 *2:11 *110:10 0.00294648
18 *2:11 *231:16 0.00496843
19 *2:11 *282:14 0.00915597
20 *2:14 *4:16 0.039774
21 *2:14 *220:13 0.00123501
22 *2:14 *285:19 0.000947371
*RES
1 io_in[10] *2:7 12.645 
2 *2:7 *2:8 52.11 
3 *2:8 *2:10 4.5 
4 *2:10 *2:11 571.77 
5 *2:11 *2:13 4.5 
6 *2:13 *2:14 102.33 
7 *2:14 *419:io_in[10] 22.5 
*END

*D_NET *3 0.426181
*CONN
*P io_in[11] I
*I *419:io_in[11] I *D tiny_user_project
*CAP
1 io_in[11] 0.000363112
2 *419:io_in[11] 0.00186024
3 *3:16 0.0177584
4 *3:15 0.0158981
5 *3:13 0.0443104
6 *3:11 0.0446736
7 *419:io_in[11] *261:47 4.9644e-05
8 *3:13 *12:11 0.198856
9 *3:13 *29:19 0.00312623
10 *3:13 *122:16 0.0116164
11 *3:13 *132:14 0
12 *3:13 *267:14 0
13 *3:13 *273:14 0
14 *3:16 *142:19 0.0829857
15 *3:16 *233:13 0.00468341
*RES
1 io_in[11] *3:11 3.195 
2 *3:11 *3:13 582.57 
3 *3:13 *3:15 4.5 
4 *3:15 *3:16 225.99 
5 *3:16 *419:io_in[11] 25.2 
*END

*D_NET *4 0.267905
*CONN
*P io_in[12] I
*I *419:io_in[12] I *D tiny_user_project
*CAP
1 io_in[12] 0.000167227
2 *419:io_in[12] 0.00145054
3 *4:16 0.011634
4 *4:15 0.0101835
5 *4:13 0.0741998
6 *4:11 0.074367
7 *419:io_in[12] *261:57 2.72707e-05
8 *4:16 *82:13 0.0410934
9 *4:16 *159:13 0.00586071
10 *4:16 *220:13 0.00544822
11 *4:16 *279:11 0.00369969
12 *2:14 *4:16 0.039774
*RES
1 io_in[12] *4:11 2.115 
2 *4:11 *4:13 579.69 
3 *4:13 *4:15 4.5 
4 *4:15 *4:16 207.45 
5 *4:16 *419:io_in[12] 22.68 
*END

*D_NET *5 0.290736
*CONN
*P io_in[13] I
*I *419:io_in[13] I *D tiny_user_project
*CAP
1 io_in[13] 0.0751624
2 *419:io_in[13] 0.00264189
3 *5:8 0.0317149
4 *5:7 0.029073
5 *5:5 0.0751624
6 *419:io_in[13] *261:49 3.78367e-05
7 *5:8 *89:16 0.018979
8 *5:8 *120:19 0.0579646
*RES
1 io_in[13] *5:5 587.745 
2 *5:5 *5:7 4.5 
3 *5:7 *5:8 334.53 
4 *5:8 *419:io_in[13] 30.78 
*END

*D_NET *6 0.351307
*CONN
*P io_in[14] I
*I *419:io_in[14] I *D tiny_user_project
*CAP
1 io_in[14] 0.000264341
2 *419:io_in[14] 0.00293417
3 *6:16 0.0370227
4 *6:15 0.0340885
5 *6:13 0.0754476
6 *6:11 0.0757119
7 *419:io_in[14] *103:11 0
8 *419:io_in[14] *103:12 0
9 *419:io_in[14] *261:47 0.000119596
10 *419:io_in[14] *261:49 8.4789e-06
11 *6:16 *70:13 0.0491484
12 *6:16 *197:13 0.0765608
*RES
1 io_in[14] *6:11 2.655 
2 *6:11 *6:13 590.49 
3 *6:13 *6:15 4.5 
4 *6:15 *6:16 414.45 
5 *6:16 *419:io_in[14] 33.12 
*END

*D_NET *7 0.213417
*CONN
*P io_in[15] I
*I *419:io_in[15] I *D tiny_user_project
*CAP
1 io_in[15] 0.00107486
2 *419:io_in[15] 0.00115933
3 *7:11 0.03445
4 *7:10 0.0332907
5 *7:8 0.0369959
6 *7:7 0.0380708
7 *419:io_in[15] *157:12 0.000380647
8 *419:io_in[15] *412:10 0.000144266
9 *7:8 io_oeb[16] 0.00114572
10 *7:8 io_out[15] 0.00010477
11 *7:8 io_out[16] 0.01074
12 *7:8 io_out[17] 0.00956339
13 *7:8 *9:10 0.000254726
14 *7:8 *47:38 0.0394456
15 *7:8 *86:11 0.00659627
16 *7:11 *38:22 0
*RES
1 io_in[15] *7:7 12.825 
2 *7:7 *7:8 382.23 
3 *7:8 *7:10 4.5 
4 *7:10 *7:11 249.93 
5 *7:11 *419:io_in[15] 16.65 
*END

*D_NET *8 0.172191
*CONN
*P io_in[16] I
*I *419:io_in[16] I *D tiny_user_project
*CAP
1 io_in[16] 0.000247817
2 *419:io_in[16] 0.00673188
3 *8:19 0.033041
4 *8:18 0.0263092
5 *8:16 0.0106078
6 *8:15 0.0106078
7 *8:13 0.0389125
8 *8:11 0.0391603
9 *8:13 *227:19 0
10 *8:19 *202:14 0.00520214
11 *8:19 *215:14 0
12 *8:19 *278:11 0
13 *8:19 *370:19 0.00137019
*RES
1 io_in[16] *8:11 2.655 
2 *8:11 *8:13 297.27 
3 *8:13 *8:15 4.5 
4 *8:15 *8:16 79.83 
5 *8:16 *8:18 4.5 
6 *8:18 *8:19 222.75 
7 *8:19 *419:io_in[16] 49.995 
*END

*D_NET *9 0.0803852
*CONN
*P io_in[17] I
*I *419:io_in[17] I *D tiny_user_project
*CAP
1 io_in[17] 0.00133604
2 *419:io_in[17] 0.00250254
3 *9:11 0.0387292
4 *9:10 0.0375627
5 *7:8 *9:10 0.000254726
*RES
1 io_in[17] *9:10 19.935 
2 *9:10 *9:11 273.51 
3 *9:11 *419:io_in[17] 22.995 
*END

*D_NET *10 0.0770889
*CONN
*P io_in[18] I
*I *419:io_in[18] I *D tiny_user_project
*CAP
1 io_in[18] 0.00137713
2 *419:io_in[18] 0.00202389
3 *10:19 0.00717339
4 *10:11 0.0350324
5 *10:10 0.03126
6 *10:10 *86:11 0.000221982
*RES
1 io_in[18] *10:10 19.755 
2 *10:10 *10:11 228.69 
3 *10:11 *10:19 49.5 
4 *10:19 *419:io_in[18] 16.9787 
*END

*D_NET *11 0.426408
*CONN
*P io_in[19] I
*I *419:io_in[19] I *D tiny_user_project
*CAP
1 io_in[19] 0.000178873
2 *419:io_in[19] 0.000697455
3 *11:22 0.00133635
4 *11:21 0.000638891
5 *11:19 0.0122768
6 *11:18 0.0122768
7 *11:16 0.0220199
8 *11:15 0.0220199
9 *11:13 0.0322396
10 *11:11 0.0324184
11 *419:io_in[19] *211:20 0.000107706
12 *11:16 *12:11 0.000939085
13 *11:16 *50:16 0
14 *11:16 *204:10 0.0175232
15 *11:16 *257:14 2.7768e-05
16 *11:16 *378:8 0
17 *11:16 *411:10 0.0310038
18 *11:19 *245:19 0.0724139
19 *11:19 *278:11 0.127648
20 *11:22 *42:8 0.0203131
21 *11:22 *113:8 0.0203285
*RES
1 io_in[19] *11:11 2.115 
2 *11:11 *11:13 245.97 
3 *11:13 *11:15 4.5 
4 *11:15 *11:16 240.57 
5 *11:16 *11:18 4.5 
6 *11:18 *11:19 342.45 
7 *11:19 *11:21 4.5 
8 *11:21 *11:22 52.47 
9 *11:22 *419:io_in[19] 8.685 
*END

*D_NET *12 0.835661
*CONN
*P io_in[1] I
*I *419:io_in[1] I *D tiny_user_project
*CAP
1 io_in[1] 0.000509679
2 *419:io_in[1] 0.00277664
3 *12:11 0.0254573
4 *12:10 0.0226807
5 *12:8 0.00234671
6 *12:7 0.00285639
7 *12:8 *39:14 0.00500488
8 *12:8 *50:19 0.232781
9 *12:8 *77:13 0.243146
10 *12:11 *29:19 0.0932336
11 *12:11 *133:22 0.00506305
12 *12:11 *257:14 9.68162e-06
13 *3:13 *12:11 0.198856
14 *11:16 *12:11 0.000939085
*RES
1 io_in[1] *12:7 8.505 
2 *12:7 *12:8 634.95 
3 *12:8 *12:10 4.5 
4 *12:10 *12:11 527.67 
5 *12:11 *419:io_in[1] 21.06 
*END

*D_NET *13 0.19449
*CONN
*P io_in[20] I
*I *419:io_in[20] I *D tiny_user_project
*CAP
1 io_in[20] 0.0298842
2 *419:io_in[20] 0.00102029
3 *13:16 0.00563192
4 *13:8 0.019819
5 *13:7 0.0152074
6 *13:5 0.0298842
7 *13:8 *54:14 0.0922299
8 *13:16 *157:12 0.00058625
9 *13:16 *164:22 0.000226499
*RES
1 io_in[20] *13:5 229.545 
2 *13:5 *13:7 4.5 
3 *13:7 *13:8 230.85 
4 *13:8 *13:16 45.54 
5 *13:16 *419:io_in[20] 5.4 
*END

*D_NET *14 0.348613
*CONN
*P io_in[21] I
*I *419:io_in[21] I *D tiny_user_project
*CAP
1 io_in[21] 0.00577277
2 *419:io_in[21] 0.000760949
3 *14:14 0.0037103
4 *14:13 0.00294935
5 *14:11 0.0766063
6 *14:10 0.0766063
7 *14:8 0.00577277
8 *14:11 *179:13 0
9 *14:11 *265:17 0
10 *14:14 *419:wbs_dat_i[25] 0.00415572
11 *14:14 *419:wbs_dat_i[4] 0.00391647
12 *14:14 *17:19 0.107761
13 *14:14 *398:8 0.0276688
14 *14:14 *403:13 0.0329323
*RES
1 io_in[21] *14:8 49.995 
2 *14:8 *14:10 4.5 
3 *14:10 *14:11 580.23 
4 *14:11 *14:13 4.5 
5 *14:13 *14:14 272.79 
6 *14:14 *419:io_in[21] 8.865 
*END

*D_NET *15 0.348283
*CONN
*P io_in[22] I
*I *419:io_in[22] I *D tiny_user_project
*CAP
1 io_in[22] 0.00481885
2 *419:io_in[22] 0.00345566
3 *15:12 0.0374405
4 *15:11 0.0339848
5 *15:9 0.025425
6 *15:7 0.0302438
7 *419:io_in[22] *75:43 0
8 *419:io_in[22] *131:11 0.0080937
9 *419:io_in[22] *198:19 0
10 *15:12 *53:13 0.204821
*RES
1 io_in[22] *15:7 37.305 
2 *15:7 *15:9 195.66 
3 *15:9 *15:11 4.5 
4 *15:11 *15:12 513.09 
5 *15:12 *419:io_in[22] 36.855 
*END

*D_NET *16 0.27849
*CONN
*P io_in[23] I
*I *419:io_in[23] I *D tiny_user_project
*CAP
1 io_in[23] 0.000345489
2 *419:io_in[23] 0.000235852
3 *16:19 0.00160135
4 *16:18 0.0013655
5 *16:16 0.0608781
6 *16:15 0.0608781
7 *16:13 0.0315694
8 *16:11 0.0319148
9 *16:16 *64:16 0.00973968
10 *16:16 *96:14 0
11 *16:16 *124:18 0
12 *16:16 *131:14 0
13 *16:16 *265:20 0.0210603
14 *16:16 *297:16 0.0164756
15 *16:16 *328:14 0
16 *16:16 *378:8 0
17 *16:19 *131:11 0.000914936
18 *16:19 *198:19 0.00108122
19 *16:19 *207:13 0.018168
20 *16:19 *267:11 0.0222614
*RES
1 io_in[23] *16:11 3.195 
2 *16:11 *16:13 243.27 
3 *16:13 *16:15 4.5 
4 *16:15 *16:16 621.63 
5 *16:16 *16:18 4.5 
6 *16:18 *16:19 63.63 
7 *16:19 *419:io_in[23] 6.075 
*END

*D_NET *17 0.456229
*CONN
*P io_in[24] I
*I *419:io_in[24] I *D tiny_user_project
*CAP
1 io_in[24] 0.000201168
2 *419:io_in[24] 0.000698564
3 *17:19 0.00693548
4 *17:18 0.00623691
5 *17:16 0.0755711
6 *17:15 0.0755711
7 *17:13 0.0504032
8 *17:11 0.0506043
9 *419:io_in[24] *52:13 0.000106147
10 *17:16 *404:15 0
11 *17:19 *26:19 0.0175665
12 *17:19 *42:8 0.0269239
13 *17:19 *113:8 0.012443
14 *17:19 *114:8 0.0208701
15 *17:19 *398:8 0.00339014
16 *17:19 *403:13 0.000945875
17 *14:14 *17:19 0.107761
*RES
1 io_in[24] *17:11 1.935 
2 *17:11 *17:13 319.41 
3 *17:13 *17:15 4.5 
4 *17:15 *17:16 573.39 
5 *17:16 *17:18 4.5 
6 *17:18 *17:19 331.65 
7 *17:19 *419:io_in[24] 8.685 
*END

*D_NET *18 0.338779
*CONN
*P io_in[25] I
*I *419:io_in[25] I *D tiny_user_project
*CAP
1 io_in[25] 0.000125876
2 *419:io_in[25] 0.000734089
3 *18:19 0.00416497
4 *18:18 0.00343089
5 *18:16 0.0668099
6 *18:15 0.0668099
7 *18:13 0.0367917
8 *18:11 0.0369176
9 *419:io_in[25] *306:13 0.000939771
10 *419:io_in[25] *375:19 3.88803e-05
11 *18:19 *93:8 0.0770893
12 *18:19 *192:16 0.0306411
13 *18:19 *319:14 0.0142853
*RES
1 io_in[25] *18:11 1.395 
2 *18:11 *18:13 233.01 
3 *18:13 *18:15 4.5 
4 *18:15 *18:16 508.05 
5 *18:16 *18:18 4.5 
6 *18:18 *18:19 195.57 
7 *18:19 *419:io_in[25] 10.845 
*END

*D_NET *19 0.145617
*CONN
*P io_in[26] I
*I *419:io_in[26] I *D tiny_user_project
*CAP
1 io_in[26] 0.00192467
2 *419:io_in[26] 0.000280835
3 *19:11 0.0489526
4 *19:10 0.0486718
5 *19:8 0.0218536
6 *19:7 0.0237783
7 *419:io_in[26] *419:wbs_stb_i 0
8 *419:io_in[26] *261:65 0.000155238
9 *19:8 *54:17 0
*RES
1 io_in[26] *19:7 18.765 
2 *19:7 *19:8 167.67 
3 *19:8 *19:10 4.5 
4 *19:10 *19:11 370.71 
5 *19:11 *419:io_in[26] 11.79 
*END

*D_NET *20 0.140997
*CONN
*P io_in[27] I
*I *419:io_in[27] I *D tiny_user_project
*CAP
1 io_in[27] 0.00035683
2 *419:io_in[27] 0.00350111
3 *20:16 0.0223167
4 *20:15 0.0188156
5 *20:13 0.0466135
6 *20:11 0.0469703
7 *419:io_in[27] *261:57 6.71872e-05
8 *20:13 *91:13 0
9 *20:16 *135:11 0.00235526
10 *20:16 *223:13 0
11 *20:16 *247:11 0
*RES
1 io_in[27] *20:11 3.015 
2 *20:11 *20:13 362.61 
3 *20:13 *20:15 4.5 
4 *20:15 *20:16 145.89 
5 *20:16 *419:io_in[27] 37.62 
*END

*D_NET *21 0.115518
*CONN
*P io_in[28] I
*I *419:io_in[28] I *D tiny_user_project
*CAP
1 io_in[28] 0.00320123
2 *419:io_in[28] 0.000364549
3 *21:19 0.0480913
4 *21:18 0.0477267
5 *21:16 0.00637731
6 *21:15 0.00957853
7 *419:io_in[28] *419:wbs_dat_i[10] 0
8 *419:io_in[28] *261:65 0.000178814
*RES
1 io_in[28] *21:15 29.385 
2 *21:15 *21:16 48.69 
3 *21:16 *21:18 4.5 
4 *21:18 *21:19 362.61 
5 *21:19 *419:io_in[28] 12.33 
*END

*D_NET *22 0.110347
*CONN
*P io_in[29] I
*I *419:io_in[29] I *D tiny_user_project
*CAP
1 io_in[29] 0.00312523
2 *419:io_in[29] 0.000235983
3 *22:19 0.0481
4 *22:18 0.0517565
5 *22:15 0.0070177
6 *419:io_in[29] *261:57 0.000111213
*RES
1 io_in[29] *22:15 28.845 
2 *22:15 *22:18 34.29 
3 *22:18 *22:19 362.61 
4 *22:19 *419:io_in[29] 11.25 
*END

*D_NET *23 0.481648
*CONN
*P io_in[2] I
*I *419:io_in[2] I *D tiny_user_project
*CAP
1 io_in[2] 0.000466579
2 *419:io_in[2] 2.69471e-05
3 *23:11 0.032412
4 *23:10 0.0323851
5 *23:8 0.00134844
6 *23:7 0.00181502
7 *23:8 *32:8 0.0157875
8 *23:8 *39:14 0.17982
9 *23:8 *50:19 0.216953
10 *23:8 *108:13 0.000632966
*RES
1 io_in[2] *23:7 8.145 
2 *23:7 *23:8 552.15 
3 *23:8 *23:10 4.5 
4 *23:10 *23:11 247.05 
5 *23:11 *419:io_in[2] 0.225 
*END

*D_NET *24 0.237137
*CONN
*P io_in[30] I
*I *419:io_in[30] I *D tiny_user_project
*CAP
1 io_in[30] 0.00478696
2 *419:io_in[30] 0.00194267
3 *24:19 0.057837
4 *24:18 0.0558943
5 *24:16 0.0225397
6 *24:15 0.0273266
7 *24:19 *419:la_data_in[45] 0
8 *24:19 *83:8 0.0316993
9 *24:19 *104:8 0
10 *24:19 *119:12 0.013952
11 *24:19 *138:16 0.00326565
12 *24:19 *187:20 0.00456821
13 *24:19 *353:16 0.0133248
14 *24:19 *377:16 0
*RES
1 io_in[30] *24:15 41.805 
2 *24:15 *24:16 173.07 
3 *24:16 *24:18 4.5 
4 *24:18 *24:19 558.99 
5 *24:19 *419:io_in[30] 16.065 
*END

*D_NET *25 0.133283
*CONN
*P io_in[31] I
*I *419:io_in[31] I *D tiny_user_project
*CAP
1 io_in[31] 0.00582011
2 *419:io_in[31] 0.000393013
3 *25:15 0.0555115
4 *25:14 0.0603993
5 *25:11 0.011101
6 *419:io_in[31] *261:49 5.84117e-05
7 *25:14 *413:5 0
*RES
1 io_in[31] *25:11 48.825 
2 *25:11 *25:14 45.09 
3 *25:14 *25:15 341.01 
4 *25:15 *419:io_in[31] 11.25 
*END

*D_NET *26 0.241644
*CONN
*P io_in[32] I
*I *419:io_in[32] I *D tiny_user_project
*CAP
1 io_in[32] 0.000323383
2 *419:io_in[32] 0.000570079
3 *26:19 0.033664
4 *26:18 0.0368153
5 *26:13 0.037987
6 *26:11 0.0345889
7 *419:io_in[32] *270:13 7.47252e-05
8 *26:19 *52:13 0.00293441
9 *26:19 *62:8 0
10 *26:19 *114:8 0.0750075
11 *26:19 *398:8 0.000596751
12 *26:19 *403:13 0.00151582
13 *17:19 *26:19 0.0175665
*RES
1 io_in[32] *26:11 3.015 
2 *26:11 *26:13 262.71 
3 *26:13 *26:18 36.45 
4 *26:18 *26:19 394.83 
5 *26:19 *419:io_in[32] 8.145 
*END

*D_NET *27 0.12374
*CONN
*P io_in[33] I
*I *419:io_in[33] I *D tiny_user_project
*CAP
1 io_in[33] 0.000242542
2 *419:io_in[33] 0.000235983
3 *27:19 0.0444641
4 *27:18 0.0442282
5 *27:16 0.00996943
6 *27:15 0.00996943
7 *27:13 0.00713809
8 *27:11 0.00738063
9 *419:io_in[33] *261:31 0.000111213
10 *27:16 *414:13 0
*RES
1 io_in[33] *27:11 2.475 
2 *27:11 *27:13 54.81 
3 *27:13 *27:15 4.5 
4 *27:15 *27:16 75.69 
5 *27:16 *27:18 4.5 
6 *27:18 *27:19 330.21 
7 *27:19 *419:io_in[33] 11.25 
*END

*D_NET *28 0.211864
*CONN
*P io_in[34] I
*I *419:io_in[34] I *D tiny_user_project
*CAP
1 io_in[34] 0.000177869
2 *419:io_in[34] 0.000235983
3 *28:19 0.00605595
4 *28:16 0.0545227
5 *28:15 0.0487027
6 *28:13 0.0455245
7 *28:11 0.0457024
8 *419:io_in[34] *261:65 0.000111213
9 *28:16 *145:19 0
10 *28:16 *185:15 0.00819021
11 *28:16 *254:11 0
12 *28:16 *356:11 0.00264058
*RES
1 io_in[34] *28:11 1.935 
2 *28:11 *28:13 343.71 
3 *28:13 *28:15 4.5 
4 *28:15 *28:16 396.99 
5 *28:16 *28:19 45.81 
6 *28:19 *419:io_in[34] 11.25 
*END

*D_NET *29 0.444796
*CONN
*P io_in[35] I
*I *419:io_in[35] I *D tiny_user_project
*CAP
1 io_in[35] 0.000113196
2 *419:io_in[35] 0.00288297
3 *29:19 0.0376433
4 *29:18 0.0347603
5 *29:16 0.0677355
6 *29:15 0.0677355
7 *29:13 0.0200007
8 *29:11 0.0201139
9 *29:19 *122:16 0.0116164
10 *29:19 *133:22 0.033774
11 *29:19 *402:10 0.040781
12 *29:19 *411:10 0.0112797
13 *3:13 *29:19 0.00312623
14 *12:11 *29:19 0.0932336
*RES
1 io_in[35] *29:11 1.395 
2 *29:11 *29:13 152.01 
3 *29:13 *29:15 4.5 
4 *29:15 *29:16 516.15 
5 *29:16 *29:18 4.5 
6 *29:18 *29:19 520.65 
7 *29:19 *419:io_in[35] 21.24 
*END

*D_NET *30 0.397029
*CONN
*P io_in[36] I
*I *419:io_in[36] I *D tiny_user_project
*CAP
1 io_in[36] 0.00179421
2 *419:io_in[36] 0.00178716
3 *30:12 0.0464208
4 *30:11 0.0446337
5 *30:9 0.0938007
6 *30:7 0.0955949
7 *30:12 *69:10 0.0250182
8 *30:12 *244:15 0.0103718
9 *30:12 *355:19 0.0776078
*RES
1 io_in[36] *30:7 13.185 
2 *30:7 *30:9 705.6 
3 *30:9 *30:11 4.5 
4 *30:11 *30:12 529.29 
5 *30:12 *419:io_in[36] 17.595 
*END

*D_NET *31 0.471237
*CONN
*P io_in[37] I
*I *419:io_in[37] I *D tiny_user_project
*CAP
1 io_in[37] 0.000323383
2 *419:io_in[37] 0.00249813
3 *31:16 0.0444197
4 *31:15 0.0419216
5 *31:13 0.0960833
6 *31:11 0.0964067
7 *31:13 *141:12 0
8 *31:16 *382:10 0.00473076
9 *31:16 *418:11 0.184854
*RES
1 io_in[37] *31:11 3.015 
2 *31:11 *31:13 723.15 
3 *31:13 *31:15 4.5 
4 *31:15 *31:16 558.99 
5 *31:16 *419:io_in[37] 22.815 
*END

*D_NET *32 0.424239
*CONN
*P io_in[3] I
*I *419:io_in[3] I *D tiny_user_project
*CAP
1 io_in[3] 0.000423448
2 *419:io_in[3] 0.00126353
3 *32:11 0.0328117
4 *32:10 0.0315482